CRYSTAL
PRIMVEC
 4.24003304019043 -0.03034611846465 0.00000000000000
 -2.14626662038641 3.71769094619971 0.00000000000000
 0.00000000000000 0.00000000000000 24.93969917300000
PRIMCOORD
 6 1
 13     0.04004574012120     2.50307223659879     2.52400497584340
 13     0.23531900382580     2.61075815946354     8.07896348481182
 13     1.82013874424872     1.05239809432731     4.27478659873185
 51    -0.32377672969410     2.29306808225739     5.36010484076674
 51     2.16785088002392     1.25317899253076     1.46931779781676
 51     2.34263720886085     1.34901819952219     8.94913339487546
